REMARK SMILES NCCOc1ccc2ncccc2c1
REMARK SMILES IDX 2 1 1 2 3 5 4 6 5 7 6 8 14 9 7 10 13 11 8 12 12 13 9 14
REMARK SMILES IDX 11 15 10 16
REMARK H PARENT 1 3 1 4
ROOT
ATOM      1  C   UNL     1       3.380   0.312   0.917  1.00  0.00     0.119 C 
ENDROOT
BRANCH   1   2
ATOM      2  N   UNL     1       4.681   0.927   0.653  1.00  0.00    -0.327 NA
ATOM      3  H   UNL     1       0.000   0.000   0.000  1.00  0.00     0.119 HD
ATOM      4  H   UNL     1       0.000   0.000   0.000  1.00  0.00     0.119 HD
ENDBRANCH   1   2
BRANCH   1   5
ATOM      5  C   UNL     1       2.829  -0.473  -0.281  1.00  0.00     0.244 C 
BRANCH   5   6
ATOM      6  O   UNL     1       1.602  -1.125   0.051  1.00  0.00    -0.492 OA
BRANCH   6   7
ATOM      7  C   UNL     1       0.429  -0.449  -0.121  1.00  0.00     0.120 A 
ATOM      8  C   UNL     1       0.286   0.884  -0.492  1.00  0.00     0.048 A 
ATOM      9  C   UNL     1      -0.718  -1.207   0.122  1.00  0.00     0.056 A 
ATOM     10  C   UNL     1      -0.994   1.442  -0.624  1.00  0.00     0.033 A 
ATOM     11  C   UNL     1      -2.001  -0.645  -0.012  1.00  0.00     0.004 A 
ATOM     12  C   UNL     1      -2.145   0.704  -0.393  1.00  0.00     0.070 A 
ATOM     13  C   UNL     1      -3.164  -1.390   0.224  1.00  0.00     0.012 A 
ATOM     14  N   UNL     1      -3.348   1.288  -0.535  1.00  0.00    -0.256 NA
ATOM     15  C   UNL     1      -4.409  -0.791   0.079  1.00  0.00     0.021 A 
ATOM     16  C   UNL     1      -4.448   0.538  -0.299  1.00  0.00     0.112 A 
ENDBRANCH   6   7
ENDBRANCH   5   6
ENDBRANCH   1   5
TORSDOF 4
